Version 4
SHEET 1 1712 1276
WIRE -48 176 -48 160
WIRE -48 304 -48 256
WIRE 384 304 -48 304
WIRE 464 304 384 304
WIRE 592 304 544 304
WIRE 1296 304 672 304
WIRE -48 352 -48 304
WIRE 1296 368 1296 304
WIRE 1296 368 864 368
WIRE 864 400 864 368
WIRE 864 416 864 400
WIRE -48 464 -48 432
WIRE 768 480 752 480
WIRE 816 480 768 480
WIRE 1296 480 1296 368
WIRE 864 560 864 512
WIRE 384 688 384 304
WIRE 768 688 768 480
WIRE 768 688 384 688
WIRE 864 688 864 640
WIRE 864 688 768 688
WIRE 944 688 864 688
WIRE 1296 688 1296 544
WIRE 1296 688 944 688
WIRE 1296 720 1296 688
FLAG 864 400 drain
FLAG 752 480 gate
FLAG -48 160 +6v
FLAG -48 464 -6v
FLAG 944 688 Cathode
FLAG 1296 720 0
SYMBOL current 464 304 R270
WINDOW 0 24 80 Left 2
WINDOW 3 24 0 Left 2
WINDOW 123 0 0 Left 0
WINDOW 39 0 0 Left 0
SYMATTR InstName I1
SYMATTR Value PULSE(0 80m 0.1 0 0 0.9)
SYMBOL res 688 288 R90
WINDOW 0 0 56 VBottom 2
WINDOW 3 32 56 VTop 2
SYMATTR InstName R2
SYMATTR Value 5
SYMBOL njf 816 416 R0
SYMATTR InstName J1
SYMATTR Value J112
SYMBOL res 848 544 R0
SYMATTR InstName R1
SYMATTR Value 620
SYMBOL voltage -48 160 R0
WINDOW 123 0 0 Left 0
WINDOW 39 24 124 Left 2
SYMATTR SpiceLine Rser=0
SYMATTR InstName V1
SYMATTR Value 6
SYMBOL voltage -48 336 R0
WINDOW 123 0 0 Left 0
WINDOW 39 24 124 Left 2
SYMATTR SpiceLine Rser=0
SYMATTR InstName V2
SYMATTR Value 6
SYMBOL AutoGenerated\\BZX884S-B2V4 1296 512 R270
SYMATTR InstName D1
TEXT -88 552 Left 2 !.tran 1
TEXT 640 200 Left 2 ;Laser Protection in Cathode to Ground mode
